150
Created by mstk: step= -1, t= -1.000000 ps
O          14.10000   13.15000   28.51000
H          14.13000   14.03000   28.03000
H          13.35000   12.60000   28.14000
O           3.62000   22.12000   24.83000
H           2.81000   22.70000   24.76000
H           4.44000   22.67000   24.70000
O          16.13000   14.06000   15.84000
H          15.34000   13.47000   16.04000
H          15.80000   14.94000   15.49000
O           5.72000    8.18000   21.73000
H           6.22000    8.93000   22.16000
H           4.74000    8.31000   21.87000
O          23.43000   19.14000   22.35000
H          23.96000   19.71000   21.72000
H          23.39000   19.57000   23.25000
O           2.98000   11.42000   21.66000
H           2.09000   11.58000   22.09000
H           3.07000   10.46000   21.41000
O          18.89000   11.84000    6.68000
H          18.88000   12.32000    7.56000
H          19.17000   10.89000    6.82000
O          28.03000   24.00000   14.77000
H          28.97000   24.09000   15.11000
H          27.50000   23.44000   15.40000
O           4.99000    8.87000    8.47000
H           4.97000    8.14000    9.16000
H           5.59000    9.60000    8.79000
O          27.36000   23.01000   11.16000
H          26.57000   22.40000   11.07000
H          28.10000   22.53000   11.64000
O          11.88000   17.12000   26.13000
H          12.54000   17.32000   26.85000
H          10.99000   17.48000   26.40000
O           8.91000   26.64000   17.20000
H           9.65000   26.05000   16.88000
H           8.64000   26.36000   18.12000
O          25.19000   26.00000   14.20000
H          25.93000   26.59000   13.86000
H          24.36000   26.54000   14.31000
O          22.86000   13.13000   26.13000
H          22.76000   13.03000   25.14000
H          22.91000   12.22000   26.55000
O          17.27000    6.86000    6.98000
H          17.25000    7.86000    6.99000
H          18.02000    6.55000    6.39000
O          16.13000   23.54000   15.67000
H          15.15000   23.38000   15.58000
H          16.33000   24.50000   15.47000
O          14.49000   19.43000   15.25000
H          14.89000   18.69000   15.80000
H          13.68000   19.09000   14.78000
O          26.60000    2.66000    6.68000
H          26.50000    1.68000    6.50000
H          26.98000    2.79000    7.60000
O          10.57000   18.70000   12.34000
H          10.90000   18.68000   13.28000
H          10.12000   19.57000   12.16000
O          11.60000    9.11000   14.51000
H          12.59000    9.21000   14.63000
H          11.13000    9.80000   15.05000
O           1.34000   18.08000   11.33000
H           1.04000   18.79000   10.69000
H           2.34000   18.06000   11.35000
O          28.33000   28.39000   20.77000
H          28.99000   28.97000   21.24000
H          28.74000   27.49000   20.61000
O           5.38000   22.14000   12.01000
H           5.87000   21.34000   12.37000
H           4.41000   22.07000   12.25000
O           4.53000   27.41000   14.53000
H           4.05000   28.13000   15.03000
H           3.89000   26.68000   14.32000
O          22.05000   24.17000    7.29000
H          22.53000   25.04000    7.42000
H          22.70000   23.42000    7.38000
O          16.39000   27.95000   20.36000
H          15.79000   28.41000   19.71000
H          16.19000   28.29000   21.28000
O          20.35000   28.16000   12.34000
H          20.42000   27.16000   12.34000
H          19.38000   28.42000   12.33000
O          20.74000   12.05000   28.22000
H          21.36000   11.35000   27.86000
H          21.26000   12.89000   28.39000
O          20.86000   27.63000    4.08000
H          21.41000   27.04000    3.49000
H          21.24000   28.55000    4.09000
O           1.63000   23.72000   14.68000
H           2.31000   23.98000   13.99000
H           1.69000   22.73000   14.84000
O          24.31000   19.64000   27.55000
H          24.78000   20.47000   27.27000
H          24.83000   18.84000   27.25000
O          27.29000   25.37000    5.49000
H          27.88000   25.98000    4.96000
H          27.31000   24.45000    5.09000
O          25.47000   26.48000   20.07000
H          24.81000   25.91000   19.59000
H          26.35000   26.00000   20.14000
O           3.10000   10.58000   10.66000
H           2.91000    9.61000   10.49000
H           3.78000   10.91000   10.01000
O          11.41000   20.36000   19.98000
H          12.33000   20.10000   20.28000
H          11.16000   19.84000   19.16000
O          12.23000   21.20000   22.18000
H          11.30000   21.52000   22.01000
H          12.48000   21.41000   23.13000
O          18.70000   24.00000    6.84000
H          19.31000   24.37000    6.14000
H          17.80000   24.42000    6.75000
O           0.98000   26.81000   14.75000
H           1.30000   25.87000   14.60000
H           1.75000   27.40000   14.98000
O           3.89000    8.25000    5.88000
H           4.88000    8.39000    5.83000
H           3.65000    7.41000    5.39000
O          28.45000    4.02000    5.96000
H          29.08000    3.28000    5.70000
H          28.93000    4.67000    6.54000
O          19.79000   14.82000   27.81000
H          19.67000   15.81000   27.91000
H          20.56000   14.63000   27.20000
O          15.46000   11.98000   26.20000
H          15.37000   11.93000   27.20000
H          16.40000   11.75000   25.94000
O           9.47000    7.90000   13.03000
H          10.46000    8.03000   12.96000
H           9.02000    8.79000   13.15000
O          21.77000   17.10000   25.37000
H          22.57000   17.68000   25.54000
H          21.27000   17.44000   24.57000
O          26.79000    6.09000    7.16000
H          26.79000    5.09000    7.22000
H          27.73000    6.43000    7.14000
O          25.47000   18.29000    5.42000
H          25.81000   19.22000    5.31000
H          26.18000   17.72000    5.82000
O          26.00000    4.39000   22.95000
H          25.59000    5.07000   22.34000
H          25.48000    4.36000   23.81000
O          26.83000   20.99000   13.27000
H          26.30000   21.72000   13.70000
H          26.30000   20.14000   13.25000
O          24.67000   17.42000   23.44000
H          23.70000   17.35000   23.66000
H          25.16000   16.64000   23.82000
O          27.39000   28.31000   18.19000
H          27.93000   28.98000   18.69000
H          27.26000   27.50000   18.76000
150
Created by mstk: step= -1, t= -1.000000 ps
O          12.27000   11.09000   24.58000
H          12.53000   11.95000   25.01000
H          11.28000   11.03000   24.48000
O          29.74000   23.17000   23.59000
H          29.73000   22.52000   22.83000
H           0.02000   22.75000   24.41000
O          14.59000   19.62000   16.82000
H          14.48000   20.42000   17.42000
H          14.16000   18.85000   17.29000
O           2.32000   12.52000   22.23000
H           1.54000   12.29000   21.65000
H           3.18000   12.59000   21.72000
O          24.57000   24.15000   18.34000
H          24.85000   23.88000   17.41000
H          24.36000   25.12000   18.45000
O           4.50000   10.48000   23.40000
H           3.75000   11.02000   23.02000
H           4.53000    9.57000   22.99000
O          15.30000   12.19000    7.19000
H          16.26000   12.20000    7.47000
H          15.09000   11.48000    6.53000
O          27.68000   28.58000   13.92000
H          27.02000   27.97000   14.34000
H          28.49000   28.53000   14.51000
O           5.37000    4.75000   12.04000
H           4.73000    4.10000   12.45000
H           6.02000    4.19000   11.52000
O          29.66000   22.78000   12.81000
H           0.40000   22.48000   12.40000
H          29.02000   22.02000   12.89000
O          11.85000   15.34000    2.69000
H          10.96000   15.57000    2.30000
H          12.11000   14.46000    2.30000
O          12.41000   26.69000   13.21000
H          13.33000   26.50000   13.54000
H          12.35000   27.68000   13.14000
O          25.37000   24.60000   12.47000
H          24.99000   25.37000   11.97000
H          25.82000   23.93000   11.87000
O          24.56000    5.25000   29.08000
H          24.46000    6.02000   29.71000
H          23.89000    5.23000   28.34000
O          22.89000    9.45000   30.03000
H          23.28000    9.29000    0.83000
H          23.50000   10.01000   29.48000
O          19.88000   19.23000   12.47000
H          20.12000   19.82000   11.70000
H          20.57000   18.53000   12.31000
O          16.92000   19.88000   13.92000
H          17.69000   19.80000   13.29000
H          16.89000   18.99000   14.37000
O          17.68000   26.32000    8.16000
H          16.78000   26.05000    7.83000
H          18.29000   25.53000    8.11000
O          16.13000   19.48000    7.78000
H          16.76000   18.75000    8.06000
H          15.33000   18.94000    7.55000
O          15.66000    1.15000   12.36000
H          15.75000    0.59000   11.54000
H          15.26000    2.02000   12.09000
O           1.46000   21.34000   11.35000
H           2.41000   21.33000   11.66000
H           1.59000   21.17000   10.37000
O          29.61000    5.24000   24.16000
H          29.24000    5.41000   25.08000
H          29.74000    6.07000   23.62000
O           4.03000   20.89000   12.12000
H           4.59000   20.36000   11.48000
H           4.66000   21.38000   12.72000
O          12.78000   29.55000   14.00000
H          12.01000   30.09000   13.66000
H          13.33000    0.02000   14.60000
O          24.80000   24.77000    5.78000
H          24.74000   25.76000    5.93000
H          23.91000   24.49000    5.41000
O          17.65000   20.39000   23.61000
H          17.06000   19.65000   23.29000
H          17.30000   21.26000   23.25000
O          20.18000   25.51000   12.48000
H          20.49000   25.45000   13.43000
H          20.93000   25.97000   12.00000
O          19.14000   17.68000   28.18000
H          18.63000   17.67000   29.04000
H          19.97000   17.12000   28.25000
O          20.40000   25.90000    1.52000
H          19.84000   26.49000    0.93000
H          21.19000   25.58000    1.00000
O          29.74000   27.25000   15.42000
H          29.56000   26.61000   14.67000
H          29.65000   26.84000   16.33000
O          26.74000   12.51000   25.99000
H          26.13000   11.92000   26.52000
H          27.70000   12.28000   26.16000
O          29.27000   21.72000    4.00000
H          30.04000   22.35000    3.88000
H          28.45000   22.15000    3.61000
O          24.25000   28.71000   17.25000
H          23.27000   28.84000   17.09000
H          24.16000   27.78000   16.90000
O           2.12000    8.52000   14.56000
H           2.27000    7.84000   15.28000
H           2.72000    8.31000   13.78000
O          10.56000   18.60000   23.39000
H          11.50000   18.27000   23.33000
H          10.64000   19.56000   23.11000
O          12.13000   18.02000    1.48000
H          12.08000   17.05000    1.22000
H          12.83000   18.40000    0.88000
O          18.62000   23.88000    6.85000
H          19.11000   23.53000    7.65000
H          18.20000   23.00000    6.63000
O          29.67000   25.59000   12.99000
H           0.19000   26.02000   12.35000
H          29.55000   24.61000   12.81000
O           3.95000    8.69000    9.49000
H           3.10000    9.18000    9.69000
H           4.43000    9.03000    8.67000
O           7.51000   13.82000    2.47000
H           8.04000   14.53000    2.00000
H           7.05000   13.26000    1.78000
O          22.71000   17.21000   27.56000
H          23.20000   17.82000   28.19000
H          23.51000   16.73000   27.18000
O          15.88000    6.93000   28.09000
H          14.89000    6.97000   27.92000
H          16.24000    7.77000   27.69000
O          13.12000    8.42000   18.45000
H          13.32000    8.13000   19.39000
H          12.32000    9.02000   18.41000
O          25.10000   14.93000   26.77000
H          25.40000   14.65000   27.68000
H          25.42000   14.22000   26.14000
O          20.14000    8.82000    4.14000
H          20.22000    7.84000    3.94000
H          19.98000    9.32000    3.28000
O          29.13000   18.48000    1.63000
H          28.21000   18.11000    1.69000
H          29.19000   19.16000    2.37000
O          27.11000    4.36000   25.87000
H          27.05000    4.21000   24.88000
H          26.20000    4.35000   26.29000
O          24.75000   27.23000   11.69000
H          25.66000   27.59000   11.90000
H          24.62000   27.53000   10.74000
O          22.18000    6.03000   28.10000
H          21.61000    6.74000   27.69000
H          21.62000    5.52000   28.75000
O          26.60000   27.90000   18.77000
H          25.98000   28.33000   18.12000
H          27.19000   28.67000   19.02000
150
Created by mstk: step= -1, t= -1.000000 ps
O          11.44000   10.30000   25.14000
H          12.25000   10.03000   25.67000
H          11.50000   10.15000   24.15000
O          28.85000   25.82000   22.15000
H          27.95000   26.25000   22.02000
H          28.96000   25.17000   21.40000
O          15.16000   16.95000   15.84000
H          14.42000   17.57000   16.10000
H          14.63000   16.17000   15.54000
O           4.95000   12.26000   22.81000
H           4.72000   11.80000   21.95000
H           4.92000   11.54000   23.50000
O          21.21000   21.10000   17.09000
H          21.65000   21.48000   16.27000
H          20.24000   21.17000   16.85000
O           7.14000   13.65000   21.77000
H           6.36000   13.17000   22.18000
H           6.70000   14.54000   21.89000
O          12.01000   10.71000    5.42000
H          11.99000   11.49000    6.04000
H          12.57000    9.96000    5.78000
O          27.13000   29.48000   11.81000
H          26.64000    0.24000   11.66000
H          26.47000   28.84000   12.22000
O           3.80000    3.67000   11.08000
H           4.03000    3.48000   12.04000
H           3.10000    3.00000   10.83000
O           0.53000   23.60000   12.56000
H           1.04000   23.14000   11.83000
H           0.83000   23.18000   13.41000
O           6.67000   14.09000    4.22000
H           6.71000   14.72000    4.99000
H           7.47000   13.54000    4.46000
O          15.12000   28.39000    8.79000
H          15.73000   28.65000    8.04000
H          15.15000   29.09000    9.50000
O          29.63000   29.09000   11.03000
H          28.72000   29.39000   11.30000
H          29.79000   29.31000   10.07000
O          23.23000    3.84000   26.91000
H          23.27000    3.04000   26.32000
H          22.29000    4.17000   26.97000
O          22.32000    8.47000   27.87000
H          22.95000    9.22000   27.66000
H          22.84000    7.89000   28.51000
O          23.31000   17.77000   11.97000
H          23.64000   18.11000   12.85000
H          22.35000   17.92000   11.75000
O          17.86000   17.91000   15.13000
H          16.88000   18.07000   15.23000
H          18.13000   17.24000   15.81000
O          16.67000   25.79000   11.03000
H          15.76000   25.72000   10.64000
H          16.42000   25.19000   11.79000
O          20.53000   20.28000    9.63000
H          21.09000   19.51000    9.94000
H          20.96000   20.53000    8.77000
O          18.58000   27.89000   11.18000
H          18.17000   27.00000   10.95000
H          18.29000   28.56000   10.49000
O           2.04000   21.76000   11.42000
H           2.44000   21.41000   10.57000
H           2.69000   21.39000   12.08000
O          27.15000    5.10000   28.52000
H          27.18000    4.24000   28.01000
H          27.97000    5.64000   28.29000
O           3.98000   19.96000    9.39000
H           3.43000   19.42000    8.75000
H           4.81000   20.27000    8.92000
O          12.72000   29.71000   14.90000
H          11.97000   29.15000   14.54000
H          12.76000   29.55000   15.89000
O          22.70000   21.05000    1.99000
H          22.78000   20.38000    2.73000
H          21.83000   21.08000    1.50000
O          14.92000   17.16000   25.50000
H          15.33000   16.28000   25.30000
H          14.57000   17.18000   26.44000
O          21.20000   27.14000   13.66000
H          20.69000   27.89000   14.09000
H          20.79000   27.09000   12.75000
O          25.58000   17.74000   26.68000
H          25.40000   18.11000   25.77000
H          25.39000   16.76000   26.68000
O          24.79000   24.80000    0.36000
H          24.12000   25.38000   30.00000
H          24.59000   23.84000    0.18000
O          29.64000   29.86000   14.00000
H          28.74000   29.82000   13.55000
H           0.15000   29.46000   13.32000
O          26.07000   14.89000   25.36000
H          26.23000   14.34000   24.53000
H          26.82000   14.74000   26.00000
O          28.71000   23.09000    1.86000
H          27.93000   23.17000    1.23000
H          28.40000   23.65000    2.63000
O          26.63000   27.79000   16.96000
H          26.62000   27.48000   16.01000
H          27.06000   27.06000   17.48000
O           1.83000    6.70000   14.35000
H           2.29000    6.69000   13.46000
H           2.56000    6.29000   14.91000
O          16.45000   14.93000   25.10000
H          17.19000   14.75000   25.75000
H          16.15000   14.00000   24.92000
O          10.70000   15.93000    6.48000
H          10.31000   16.73000    6.94000
H          10.17000   16.13000    5.65000
O          14.43000   25.37000    9.50000
H          13.59000   24.91000    9.19000
H          14.60000   26.11000    8.86000
O          29.25000   26.10000   12.56000
H          29.42000   26.69000   11.78000
H          29.63000   25.20000   12.34000
O           4.95000    8.63000   11.03000
H           4.51000    9.36000   10.52000
H           5.89000    8.63000   10.69000
O          11.21000   13.29000    6.51000
H          11.17000   14.29000    6.58000
H          10.37000   13.34000    5.96000
O          23.76000   15.96000   24.21000
H          24.44000   15.54000   24.81000
H          23.42000   15.21000   23.64000
O          14.68000   12.48000   29.39000
H          15.68000   12.46000   29.37000
H          14.35000   11.72000   28.82000
O          13.68000    5.83000   22.76000
H          14.29000    6.51000   23.18000
H          12.82000    6.34000   22.69000
O          28.18000   15.40000   27.30000
H          28.18000   16.33000   26.94000
H          28.33000   15.56000   28.27000
O          17.74000   11.49000   28.43000
H          18.16000   11.03000   29.22000
H          18.06000   10.83000   27.75000
O          29.82000   15.23000    1.69000
H          29.51000   15.64000    2.55000
H           0.55000   14.70000    1.88000
O          24.11000    6.15000   28.95000
H          25.11000    6.04000   28.97000
H          23.89000    5.42000   28.30000
O          24.53000    0.54000   13.50000
H          24.72000    0.40000   14.47000
H          23.96000   29.88000   13.17000
O          20.81000    5.35000   27.19000
H          20.56000    6.32000   27.13000
H          21.28000    5.09000   28.03000
O          24.90000    0.44000   17.81000
H          25.66000   29.90000   18.00000
H          25.29000    1.36000   17.80000
150
Created by mstk: step= -1, t= -1.000000 ps
O          12.42000    8.03000   24.06000
H          13.37000    7.73000   24.13000
H          12.58000    9.00000   24.27000
O          26.96000   27.88000   25.16000
H          26.35000   27.15000   25.46000
H          26.43000   28.42000   24.51000
O          17.34000   21.84000   15.50000
H          17.44000   22.53000   14.79000
H          17.31000   22.23000   16.42000
O           8.99000    9.22000   23.11000
H           9.17000    8.35000   22.65000
H           9.87000    9.36000   23.57000
O          21.69000   21.31000   12.55000
H          22.46000   20.77000   12.21000
H          21.74000   22.23000   12.17000
O           8.76000   11.09000   20.94000
H           8.60000   10.63000   21.81000
H           9.19000   10.53000   20.23000
O          10.13000   11.54000    4.91000
H          11.10000   11.33000    4.78000
H           9.75000   11.90000    4.06000
O          29.30000   29.40000   12.57000
H           0.01000   29.71000   13.12000
H          28.65000   29.22000   13.30000
O           0.67000    2.55000   12.49000
H           0.43000    1.73000   11.98000
H           0.20000    2.48000   13.37000
O           1.80000   24.03000   10.59000
H           1.98000   23.05000   10.56000
H           2.73000   24.41000   10.58000
O           0.66000   20.55000   27.69000
H           1.55000   20.97000   27.48000
H           0.15000   21.37000   27.96000
O          16.95000   30.04000   15.65000
H          16.41000   29.35000   16.13000
H          16.56000    0.06000   14.74000
O          29.34000   27.75000   10.54000
H          29.16000   28.30000   11.36000
H          29.32000   28.47000    9.85000
O          23.33000    8.15000   26.34000
H          23.27000    9.14000   26.49000
H          23.81000    7.94000   25.48000
O          21.22000    9.47000   29.08000
H          21.38000    8.53000   28.78000
H          21.66000    9.58000   29.97000
O          26.90000   22.32000   16.60000
H          26.32000   21.93000   15.88000
H          26.86000   21.64000   17.33000
O          19.16000   19.73000   14.95000
H          18.77000   20.42000   15.56000
H          18.35000   19.38000   14.48000
O          13.84000   22.83000   12.62000
H          14.44000   22.08000   12.90000
H          13.06000   22.28000   12.31000
O          21.30000   24.02000   11.22000
H          20.31000   24.11000   11.25000
H          21.69000   24.76000   11.78000
O          16.19000   26.89000   14.78000
H          15.56000   27.12000   15.52000
H          16.97000   26.56000   15.30000
O           2.65000   21.37000   10.86000
H           2.35000   20.56000   10.35000
H           2.15000   21.27000   11.72000
O          22.60000    6.81000    1.69000
H          23.05000    6.36000    2.46000
H          22.97000    6.49000    0.82000
O           1.47000   19.34000    9.48000
H           2.08000   19.14000    8.71000
H           0.94000   18.55000    9.79000
O          14.85000   28.30000   16.73000
H          14.51000   27.67000   17.44000
H          13.97000   28.75000   16.53000
O          24.03000   20.07000   25.95000
H          23.67000   19.65000   26.79000
H          23.30000   19.86000   25.30000
O          16.49000   17.90000   22.78000
H          16.82000   17.55000   21.90000
H          16.95000   17.33000   23.46000
O          18.26000   26.80000   12.21000
H          17.76000   27.17000   11.44000
H          17.79000   27.04000   13.06000
O          20.78000   20.23000   27.56000
H          21.63000   19.93000   27.98000
H          20.51000   21.12000   27.93000
O          25.97000   22.60000   27.42000
H          25.04000   22.92000   27.62000
H          25.94000   21.63000   27.19000
O           0.82000   27.25000   15.06000
H           0.32000   26.62000   15.65000
H           0.75000   26.61000   14.29000
O          26.59000   15.11000   26.91000
H          27.27000   15.84000   26.81000
H          25.72000   15.60000   27.03000
O          28.73000   22.78000   27.78000
H          29.25000   23.57000   27.45000
H          27.83000   22.91000   27.37000
O          24.31000    1.30000   14.27000
H          24.56000    0.85000   13.42000
H          24.91000    0.86000   14.94000
O           2.24000    5.28000   14.06000
H           2.85000    4.72000   13.51000
H           1.35000    5.20000   13.60000
O          17.97000   16.59000   24.50000
H          17.92000   15.69000   24.93000
H          18.94000   16.82000   24.50000
O          13.02000   13.72000    6.90000
H          13.78000   13.32000    7.42000
H          13.39000   14.47000    6.35000
O          14.86000   26.30000   11.60000
H          15.42000   25.50000   11.37000
H          14.61000   26.25000   12.57000
O           0.68000   26.01000   12.47000
H           0.18000   26.45000   11.73000
H           1.32000   25.43000   11.97000
O           3.08000    1.68000    9.61000
H           3.66000    1.45000    8.83000
H           2.66000    0.82000    9.90000
O          11.52000   13.38000    2.16000
H          11.70000   13.85000    1.29000
H          11.66000   14.02000    2.92000
O          22.83000   18.50000   28.19000
H          23.66000   18.02000   28.48000
H          22.01000   17.98000   28.45000
O          18.34000   14.08000   26.01000
H          19.10000   13.88000   26.62000
H          17.79000   13.29000   26.29000
O           9.74000    6.05000   20.42000
H           8.95000    6.67000   20.38000
H           9.71000    5.71000   21.36000
O          24.88000   17.16000   29.25000
H          25.69000   17.73000   29.16000
H          25.33000   16.30000   29.50000
O          18.37000   11.52000   27.33000
H          18.99000   10.88000   26.87000
H          17.80000   10.91000   27.87000
O          28.54000   14.79000   29.76000
H          29.25000   14.18000    0.05000
H          29.00000   15.67000   29.64000
O          21.68000    7.08000   28.27000
H          21.48000    6.12000   28.08000
H          22.47000    7.24000   27.67000
O          26.01000   29.90000   16.14000
H          26.21000   29.42000   15.29000
H          26.53000   29.47000   16.88000
O          18.54000    5.78000   24.88000
H          18.87000    5.30000   24.06000
H          17.95000    5.18000   25.41000
O          23.42000   29.38000   17.16000
H          24.24000   29.52000   16.62000
H          22.82000    0.11000   17.21000
